TreeCmp version 1.0-b291

Active options:
Type of the analysis: matrix comparison mode (-m)
Metrics:
  1. MatchingCluster (mc)
Input file: frogs_tripRoot.trees
Output file: frogs_tripRoot.dmc_pairs
Additional options:
N - Report normalized distances.
P - Prune compared trees if needed (trees can have different leaf sets).
-----
2019-08-23 18:24:35: Start of reading random statistics.
2019-08-23 18:24:36: End of reading random statistics.
2019-08-23 18:24:36: Start of scanning input file: frogs_tripRoot.trees
2019-08-23 18:24:36: End of scanning input file: frogs_tripRoot.trees
2019-08-23 18:24:36: 95 valid trees found in file: frogs_tripRoot.trees
2019-08-23 18:24:36: Start of calculation...please wait...
2019-08-23 18:24:36: 0.00% completed...
2019-08-23 18:24:39: 5.02% completed...
2019-08-23 18:24:40: 10.03% completed...
2019-08-23 18:24:42: 15.05% completed...
2019-08-23 18:24:43: 20.07% completed...
2019-08-23 18:24:45: 25.08% completed...
2019-08-23 18:24:46: 30.10% completed...
2019-08-23 18:24:47: 35.12% completed...
2019-08-23 18:24:49: 40.13% completed...
2019-08-23 18:24:50: 45.15% completed...
2019-08-23 18:24:51: 50.17% completed...
2019-08-23 18:24:52: 55.18% completed...
2019-08-23 18:24:53: 60.20% completed...
2019-08-23 18:24:54: 65.22% completed...
2019-08-23 18:24:55: 70.24% completed...
2019-08-23 18:24:56: 75.25% completed...
2019-08-23 18:24:57: 80.27% completed...
2019-08-23 18:24:58: 85.29% completed...
2019-08-23 18:24:58: 90.30% completed...
2019-08-23 18:24:59: 95.32% completed...
2019-08-23 18:25:00: 100.00% completed.
2019-08-23 18:25:00: End of calculation.
2019-08-23 18:25:00: Total calculation time: 24011 ms.
