TreeCmp version 1.0-b291

Active options:
Type of the analysis: matrix comparison mode (-m)
Metrics:
  1. MatchingCluster (mc)
Input file: frogs_tripRoot.trees
Output file: frogs_tripRoot.dmc_pairs
Additional options:
N - Report normalized distances.
P - Prune compared trees if needed (trees can have different leaf sets).
-----
2019-08-24 16:11:33: Start of reading random statistics.
2019-08-24 16:11:33: End of reading random statistics.
2019-08-24 16:11:33: Start of scanning input file: frogs_tripRoot.trees
2019-08-24 16:11:33: End of scanning input file: frogs_tripRoot.trees
2019-08-24 16:11:33: 95 valid trees found in file: frogs_tripRoot.trees
2019-08-24 16:11:33: Start of calculation...please wait...
2019-08-24 16:11:33: 0.00% completed...
2019-08-24 16:11:35: 5.02% completed...
2019-08-24 16:11:36: 10.03% completed...
2019-08-24 16:11:36: 15.05% completed...
2019-08-24 16:11:37: 20.07% completed...
2019-08-24 16:11:38: 25.08% completed...
2019-08-24 16:11:39: 30.10% completed...
2019-08-24 16:11:39: 35.12% completed...
2019-08-24 16:11:40: 40.13% completed...
2019-08-24 16:11:40: 45.15% completed...
2019-08-24 16:11:41: 50.17% completed...
2019-08-24 16:11:41: 55.18% completed...
2019-08-24 16:11:41: 60.20% completed...
2019-08-24 16:11:42: 65.22% completed...
2019-08-24 16:11:43: 70.24% completed...
2019-08-24 16:11:43: 75.25% completed...
2019-08-24 16:11:44: 80.27% completed...
2019-08-24 16:11:44: 85.29% completed...
2019-08-24 16:11:44: 90.30% completed...
2019-08-24 16:11:45: 95.32% completed...
2019-08-24 16:11:45: 100.00% completed.
2019-08-24 16:11:45: End of calculation.
2019-08-24 16:11:45: Total calculation time: 12415 ms.
