TreeCmp version 1.0-b291

Active options:
Type of the analysis: matrix comparison mode (-m)
Metrics:
  1. MatchingCluster (mc)
Input file: xencan_tripRoot.trees
Output file: xencan_tripRoot.dmc_pairs
Additional options:
N - Report normalized distances.
P - Prune compared trees if needed (trees can have different leaf sets).
-----
2019-08-24 16:11:56: Start of reading random statistics.
2019-08-24 16:11:56: End of reading random statistics.
2019-08-24 16:11:56: Start of scanning input file: xencan_tripRoot.trees
2019-08-24 16:11:56: End of scanning input file: xencan_tripRoot.trees
2019-08-24 16:11:56: 212 valid trees found in file: xencan_tripRoot.trees
2019-08-24 16:11:56: Start of calculation...please wait...
2019-08-24 16:11:56: 0.00% completed...
2019-08-24 16:11:58: 5.00% completed...
2019-08-24 16:11:58: 10.01% completed...
2019-08-24 16:11:59: 15.01% completed...
2019-08-24 16:11:59: 20.01% completed...
2019-08-24 16:12:00: 25.02% completed...
2019-08-24 16:12:00: 30.02% completed...
2019-08-24 16:12:01: 35.02% completed...
2019-08-24 16:12:01: 40.03% completed...
2019-08-24 16:12:02: 45.03% completed...
2019-08-24 16:12:02: 50.03% completed...
2019-08-24 16:12:03: 55.03% completed...
2019-08-24 16:12:03: 60.04% completed...
2019-08-24 16:12:03: 65.04% completed...
2019-08-24 16:12:04: 70.04% completed...
2019-08-24 16:12:04: 75.05% completed...
2019-08-24 16:12:05: 80.05% completed...
2019-08-24 16:12:05: 85.05% completed...
2019-08-24 16:12:06: 90.06% completed...
2019-08-24 16:12:06: 95.06% completed...
2019-08-24 16:12:06: 100.00% completed.
2019-08-24 16:12:06: End of calculation.
2019-08-24 16:12:06: Total calculation time: 10429 ms.
