TreeCmp version 1.0-b291

Active options:
Type of the analysis: matrix comparison mode (-m)
Metrics:
  1. MatchingCluster (mc)
Input file: is_tripRoot.trees
Output file: is_tripRoot.dmc_pairs
Additional options:
N - Report normalized distances.
P - Prune compared trees if needed (trees can have different leaf sets).
-----
2019-08-23 18:07:04: Start of reading random statistics.
2019-08-23 18:07:04: End of reading random statistics.
2019-08-23 18:07:04: Start of scanning input file: is_tripRoot.trees
2019-08-23 18:07:06: End of scanning input file: is_tripRoot.trees
2019-08-23 18:07:06: 1478 valid trees found in file: is_tripRoot.trees
2019-08-23 18:07:07: Start of calculation...please wait...
2019-08-232019-08-23 18:12:15: 5.00% completed...
2019-08-23 18:15:39: 10.00% completed...
2019-08-23 18:18:05: 15.00% completed...
2019-08-23 18:20:35: 20.00% completed...
2019-08-23 18:23:11: 25.00% completed...
2019-08-23 18:25:59: 30.00% completed...
2019-08-23 18:28:19: 35.00% completed...
2019-08-23 18:30:38: 40.00% completed...
2019-08-23 18:32:58: 45.00% completed...
2019-08-23 18:35:24: 50.00% completed...
2019-08-23 18:37:51: 55.00% completed...
2019-08-23 18:40:16: 60.00% completed...
2019-08-23 18:42:40: 65.00% completed...
2019-08-23 18:45:03: 70.00% completed...
2019-08-23 18:47:33: 75.00% completed...
2019-08-23 18:50:36: 80.00% completed...
2019-08-23 18:53:11: 85.00% completed...
2019-08-23 18:55:41: 90.00% completed...
2019-08-23 18:58:01: 95.00% completed...
2019-08-23 18:59:49: 100.00% completed.
2019-08-23 18:59:49: End of calculation.
2019-08-23 18:59:49: Total calculation time: 3174447 ms.
calculation time: 2989565 ms.
