TreeCmp version 1.0-b291

Active options:
Type of the analysis: matrix comparison mode (-m)
Metrics:
  1. MatchingCluster (mc)
Input file: is_tripRoot.trees
Output file: is_tripRoot.dmc_pairs
Additional options:
N - Report normalized distances.
P - Prune compared trees if needed (trees can have different leaf sets).
-----
2019-08-24 16:12:47: Start of reading random statistics.
2019-08-24 16:12:47: End of reading random statistics.
2019-08-24 16:12:47: Start of scanning input file: is_tripRoot.trees
2019-08-24 16:12:49: End of scanning input file: is_tripRoot.trees
2019-08-24 16:12:49: 1478 valid trees found in file: is_tripRoot.trees
2019-08-24 16:12:49: Start of calculation...please wait...
2019-08-24 16:12:49: 0.00% completed...
2019-08-24 16:14:21: 5.00% completed...
2019-08-24 16:15:48: 10.00% completed...
2019-08-24 16:17:24: 15.00% completed...
2019-08-24 16:18:56: 20.00% completed...
2019-08-24 16:20:23: 25.00% completed...
2019-08-24 16:21:53: 30.00% completed...
2019-08-24 16:23:21: 35.00% completed...
2019-08-24 16:24:48: 40.00% completed...
2019-08-24 16:26:18: 45.00% completed...
2019-08-24 16:27:46: 50.00% completed...
2019-08-24 16:29:22: 55.00% completed...
2019-08-24 16:30:58: 60.00% completed...
2019-08-24 16:32:33: 65.00% completed...
2019-08-24 16:34:24: 70.00% completed...
2019-08-24 16:36:09: 75.00% completed...
2019-08-24 16:37:45: 80.00% completed...
2019-08-24 16:39:23: 85.00% completed...
2019-08-24 16:40:59: 90.00% completed...
2019-08-24 16:42:36: 95.00% completed...
2019-08-24 16:44:06: 100.00% completed.
2019-08-24 16:44:06: End of calculation.
2019-08-24 16:44:06: Total calculation time: 1877148 ms.
