TreeCmp version 1.0-b291

Active options:
Type of the analysis: matrix comparison mode (-m)
Metrics:
  1. MatchingCluster (mc)
Input file: xenrs_tripRoot.trees
Output file: xenrs_tripRoot.dmc_pairs
Additional options:
N - Report normalized distances.
P - Prune compared trees if needed (trees can have different leaf sets).
-----
2019-08-24 16:12:47: Start of reading random statistics.
2019-08-24 16:12:47: End of reading random statistics.
2019-08-24 16:12:47: Start of scanning input file: xenrs_tripRoot.trees
2019-08-24 16:12:47: End of scanning input file: xenrs_tripRoot.trees
2019-08-24 16:12:47: 393 valid trees found in file: xenrs_tripRoot.trees
2019-08-24 16:12:47: Start of calculation...please wait...
2019-08-24 16:12:47: 0.00% completed...
2019-08-24 16:12:50: 5.00% completed...
2019-08-24 16:12:51: 10.00% completed...
2019-08-24 16:12:52: 15.00% completed...
2019-08-24 16:12:53: 20.00% completed...
2019-08-24 16:12:54: 25.00% completed...
2019-08-24 16:12:54: 30.00% completed...
2019-08-24 16:12:54: 35.01% completed...
2019-08-24 16:12:55: 40.01% completed...
2019-08-24 16:12:55: 45.01% completed...
2019-08-24 16:12:56: 50.01% completed...
2019-08-24 16:12:56: 55.01% completed...
2019-08-24 16:12:57: 60.01% completed...
2019-08-24 16:12:57: 65.01% completed...
2019-08-24 16:12:58: 70.01% completed...
2019-08-24 16:12:58: 75.01% completed...
2019-08-24 16:12:58: 80.01% completed...
2019-08-24 16:12:59: 85.01% completed...
2019-08-24 16:12:59: 90.01% completed...
2019-08-24 16:12:59: 95.01% completed...
2019-08-24 16:13:00: 100.00% completed.
2019-08-24 16:13:00: End of calculation.
2019-08-24 16:13:00: Total calculation time: 12592 ms.
