TreeCmp version 1.0-b291

Active options:
Type of the analysis: matrix comparison mode (-m)
Metrics:
  1. MatchingCluster (mc)
Input file: xenrs_OG.trees
Output file: xenrs_OG.dmc_pairs
Additional options:
N - Report normalized distances.
P - Prune compared trees if needed (trees can have different leaf sets).
-----
2019-08-23 18:10:01: Start of reading random statistics.
2019-08-23 18:10:02: End of reading random statistics.
2019-08-23 18:10:02: Start of scanning input file: xenrs_OG.trees
2019-08-23 18:10:03: End of scanning input file: xenrs_OG.trees
2019-08-23 18:10:03: 393 valid trees found in file: xenrs_OG.trees
2019-08-23 18:10:03: Start of calculation...please wait...
2019-08-23 18:10:03: 0.00% completed...
2019-08-23 18:10:09: 5.00% completed...
2019-08-23 18:10:11: 10.00% completed...
2019-08-23 18:10:12: 15.00% completed...
2019-08-23 18:10:16: 20.00% completed...
2019-08-23 18:10:17: 25.00% completed...
2019-08-23 18:10:18: 30.00% completed...
2019-08-23 18:10:19: 35.01% completed...
2019-08-23 18:10:21: 40.01% completed...
2019-08-23 18:10:22: 45.01% completed...
2019-08-23 18:10:24: 50.01% completed...
2019-08-23 18:10:25: 55.01% completed...
2019-08-23 18:10:26: 60.01% completed...
2019-08-23 18:10:28: 65.01% completed...
2019-08-23 18:10:29: 70.01% completed...
2019-08-23 18:10:30: 75.01% completed...
2019-08-23 18:10:31: 80.01% completed...
2019-08-23 18:10:32: 85.01% completed...
2019-08-23 18:10:33: 90.01% completed...
2019-08-23 18:10:34: 95.01% completed...
2019-08-23 18:10:35: 100.00% completed.
2019-08-23 18:10:35: End of calculation.
2019-08-23 18:10:35: Total calculation time: 31905 ms.
l calculation time: 38437 ms.
