TreeCmp version 1.0-b291

Active options:
Type of the analysis: matrix comparison mode (-m)
Metrics:
  1. MatchingCluster (mc)
Input file: kp_OG.trees
Output file: kp_OG.dmc_pairs
Additional options:
N - Report normalized distances.
P - Prune compared trees if needed (trees can have different leaf sets).
-----
2019-08-23 18:06:34: Start of reading random statistics.
2019-08-23 18:06:34: End of reading random statistics.
2019-08-23 18:06:34: Start of scanning input file: kp_OG.trees
2019-08-23 18:06:35: End of scanning input file: kp_OG.trees
2019-08-23 18:06:35: 852 valid trees found in file: kp_OG.trees
2019-08-23 18:06:35: Start of calculation...please wait...
2019-08-23 18:06:35: 0.00% completed...
2019-08-23 18:06:51: 5.00% completed...
2019-08-23 18:07:22: 10.00% completed...
2019-08-23 18:07:51: 15.00% completed...
2019-08-23 18:08:16: 20.00% completed...
2019-08-23 18:08:43: 25.00% completed...
2019-08-23 18:09:09: 30.00% completed...
2019-08-23 18:09:36: 35.00% completed...
2019-08-23 18:10:10: 40.00% completed...
2019-08-23 18:10:40: 45.00% completed...
2019-08-23 18:11:02: 50.00% completed...
2019-08-23 18:11:24: 55.00% completed...
2019-08-23 18:11:46: 60.00% completed...
2019-08-23 18:12:04: 65.00% completed...
2019-08-23 18:12:25: 70.00% completed...
2019-08-23 18:12:51: 75.00% completed...
2019-08-23 18:13:11: 80.00% completed...
2019-08-23 18:13:28: 85.00% completed...
2019-08-23 18:13:43: 90.00% completed...
2019-08-23 18:13:54: 95.00% completed...
2019-08-23 18:14:03: 100.00% completed.
2019-08-23 18:14:03: End of calculation.
2019-08-23 18:14:03: Total calculation time: 452113 ms.
 calculation time: 398727 ms.
