TreeCmp version 1.0-b291

Active options:
Type of the analysis: matrix comparison mode (-m)
Metrics:
  1. MatchingCluster (mc)
Input file: kp_tripRoot.trees
Output file: kp_tripRoot.dmc_pairs
Additional options:
N - Report normalized distances.
P - Prune compared trees if needed (trees can have different leaf sets).
-----
2019-08-24 16:11:34: Start of reading random statistics.
2019-08-24 16:11:34: End of reading random statistics.
2019-08-24 16:11:34: Start of scanning input file: kp_tripRoot.trees
2019-08-24 16:11:34: End of scanning input file: kp_tripRoot.trees
2019-08-24 16:11:34: 852 valid trees found in file: kp_tripRoot.trees
2019-08-24 16:11:35: Start of calculation...please wait...
2019-08-24 16:11:35: 0.00% completed...
2019-08-24 16:11:45: 5.00% completed...
2019-08-24 16:11:53: 10.00% completed...
2019-08-24 16:12:02: 15.00% completed...
2019-08-24 16:12:10: 20.00% completed...
2019-08-24 16:12:17: 25.00% completed...
2019-08-24 16:12:24: 30.00% completed...
2019-08-24 16:12:33: 35.00% completed...
2019-08-24 16:12:41: 40.00% completed...
2019-08-24 16:12:55: 45.00% completed...
2019-08-24 16:13:03: 50.00% completed...
2019-08-24 16:13:10: 55.00% completed...
2019-08-24 16:13:17: 60.00% completed...
2019-08-24 16:13:23: 65.00% completed...
2019-08-24 16:13:29: 70.00% completed...
2019-08-24 16:13:35: 75.00% completed...
2019-08-24 16:13:40: 80.00% completed...
2019-08-24 16:13:45: 85.00% completed...
2019-08-24 16:13:50: 90.00% completed...
2019-08-24 16:13:54: 95.00% completed...
2019-08-24 16:13:58: 100.00% completed.
2019-08-24 16:13:58: End of calculation.
2019-08-24 16:13:58: Total calculation time: 143540 ms.
